 PDEW 2014  8 18  2 32  5.30  32.7000   47.6900  10.2 0.0 6.2 IRAN-IRAQ BORDER REGION                 
event name:     201408180232A  
time shift:      4.7000
half duration:   3.1000
latitude:       32.5900
longitude:      47.5300
depth:          12.0000
Mrr:       1.590000e+25
Mtt:       0.0
Mpp:       0.0
Mrt:       0.0
Mrp:       0.0
Mtp:       0.0