PDEW2017  1  2 13 14  2.80 -23.2500  179.2400 551.6 0.0 6.3 SOUTH OF FIJI ISLANDS                    
event name:     201701021314A   
time shift:      5.6900 
half duration:   3.5000 
latitude:      -23.2900 
longitude:     179.2900 
depth:         572.8200 
Mrr:       1e+24
Mtt:       0
Mpp:       0
Mrt:       0
Mrp:       0
Mtp:       0
